<?xml version="1.0" encoding="UTF-8"?>

<!-- generated on 2022-07-21 13:02:37.108261 by osmWebWizard.py v1_13_0+1326-188503db3b5
<configuration>
    <allow-fringe.min-length value="1000.0"/>
    <end value="3600"/>
    <fringe-factor value="5.0"/>
    <fringe-start-attributes value="departSpeed=&quot;max&quot;"/>
    <lanes value="True"/>
    <min-distance value="300.0"/>
    <net-file value="/home/hurddithya/sumo/tools/2022-07-21-13-02-02/osm.net.xml"/>
    <period value="2.5134768439243187"/>
    <route-file value="/home/hurddithya/sumo/tools/2022-07-21-13-02-02/osm.passenger.rou.xml"/>
    <trip-attributes value="departLane=&quot;best&quot;"/>
    <output-trip-file value="/home/hurddithya/sumo/tools/2022-07-21-13-02-02/osm.passenger.trips.xml"/>
    <prefix value="veh"/>
    <validate value="True"/>
    <vehicle-class value="passenger"/>
</configuration>
-->
<!-- generated on 2022-07-21 13:02:36 by Eclipse SUMO duarouter Version v1_13_0+1326-188503db3b5
<configuration xmlns:xsi="http://www.w3.org/2001/XMLSchema-instance" xsi:noNamespaceSchemaLocation="http://sumo.dlr.de/xsd/duarouterConfiguration.xsd">

    <input>
        <net-file value="/home/hurddithya/sumo/tools/2022-07-21-13-02-02/osm.net.xml"/>
        <route-files value="/home/hurddithya/sumo/tools/2022-07-21-13-02-02/osm.passenger.trips.xml"/>
    </input>

    <output>
        <output-file value="/home/hurddithya/sumo/tools/2022-07-21-13-02-02/osm.passenger.trips.xml.tmp"/>
        <alternatives-output value="NUL"/>
        <write-trips value="true"/>
    </output>

    <time>
        <begin value="0"/>
        <end value="3600"/>
    </time>

    <report>
        <no-warnings value="true"/>
        <ignore-errors value="true"/>
        <no-step-log value="true"/>
    </report>

</configuration>
-->

<routes xmlns:xsi="http://www.w3.org/2001/XMLSchema-instance" xsi:noNamespaceSchemaLocation="http://sumo.dlr.de/xsd/routes_file.xsd">
    <vType id="veh_passenger" vClass="passenger"/>
    <trip id="veh0" type="veh_passenger" depart="0.00" departLane="best" from="372256216#1" to="-128396777#2"/>
    <trip id="veh1" type="veh_passenger" depart="2.51" departLane="best" from="-4539929#1" to="-3936650"/>
    <trip id="veh2" type="veh_passenger" depart="5.03" departLane="best" from="3936652#2" to="37747503#1"/>
    <trip id="veh3" type="veh_passenger" depart="7.54" departLane="best" from="55668397" to="-192108787#0"/>
    <trip id="veh4" type="veh_passenger" depart="10.05" departLane="best" from="12341247#4" to="-128912367"/>
    <trip id="veh5" type="veh_passenger" depart="12.57" departLane="best" from="-128676689#1" to="-37865180#0"/>
    <trip id="veh6" type="veh_passenger" depart="15.08" departLane="best" from="37692282#5" to="23102758#5"/>
    <trip id="veh7" type="veh_passenger" depart="17.59" departLane="best" from="-39179549#0" to="317183888"/>
    <trip id="veh8" type="veh_passenger" depart="20.11" departLane="best" from="44069390#0" to="-112410779#1"/>
    <trip id="veh10" type="veh_passenger" depart="25.13" departLane="best" from="-59433205" to="-354369976#6"/>
    <trip id="veh11" type="veh_passenger" depart="27.65" departLane="best" from="8045273#5" to="-563891693"/>
    <trip id="veh12" type="veh_passenger" depart="30.16" departLane="best" from="-20485040#11" to="-22566798#1"/>
    <trip id="veh13" type="veh_passenger" depart="32.68" departLane="best" from="4937070#0" to="326772508#2"/>
    <trip id="veh15" type="veh_passenger" depart="37.70" departLane="best" from="23076537#0" to="85418338"/>
    <trip id="veh16" type="veh_passenger" depart="40.22" departLane="best" from="-81982573#1" to="24450825#2"/>
    <trip id="veh17" type="veh_passenger" depart="42.73" departLane="best" from="4541289#4" to="35078322#3"/>
    <trip id="veh18" type="veh_passenger" depart="45.24" departLane="best" from="50214631#2" to="306917253#1"/>
    <trip id="veh19" type="veh_passenger" depart="47.76" departLane="best" departSpeed="max" from="3789703#0" to="-13904655"/>
    <trip id="veh20" type="veh_passenger" depart="50.27" departLane="best" from="-3957136#0" to="-4541289#6"/>
    <trip id="veh21" type="veh_passenger" depart="52.78" departLane="best" from="-150800557#1" to="-40260272#2"/>
    <trip id="veh22" type="veh_passenger" depart="55.30" departLane="best" from="-22820607#0" to="-4540066#3"/>
    <trip id="veh23" type="veh_passenger" depart="57.81" departLane="best" from="3708865#4" to="-7990020#1"/>
    <trip id="veh24" type="veh_passenger" depart="60.32" departLane="best" from="-80448023#0" to="-38098902#4"/>
    <trip id="veh25" type="veh_passenger" depart="62.84" departLane="best" from="-4395933#5" to="700758895#1"/>
    <trip id="veh27" type="veh_passenger" depart="67.86" departLane="best" from="-3708680#2" to="-8301214#0"/>
    <trip id="veh28" type="veh_passenger" depart="70.38" departLane="best" from="928725821#3" to="3708838#2"/>
    <trip id="veh29" type="veh_passenger" depart="72.89" departLane="best" from="279585244#1" to="3785444#3"/>
    <trip id="veh30" type="veh_passenger" depart="75.40" departLane="best" from="-39944037#1" to="-130294072#1"/>
    <trip id="veh31" type="veh_passenger" depart="77.92" departLane="best" from="-528915436#0" to="-4395933#8"/>
    <trip id="veh32" type="veh_passenger" depart="80.43" departLane="best" from="-3809980#0" to="768702586#2"/>
    <trip id="veh33" type="veh_passenger" depart="82.94" departLane="best" from="37692490#1" to="1049698333#0"/>
    <trip id="veh34" type="veh_passenger" depart="85.46" departLane="best" from="627577866#1" to="13904645#2"/>
    <trip id="veh35" type="veh_passenger" depart="87.97" departLane="best" from="-4395858#5" to="-4215606#2"/>
    <trip id="veh36" type="veh_passenger" depart="90.49" departLane="best" from="293281653#1" to="-4395775#4"/>
    <trip id="veh37" type="veh_passenger" depart="93.00" departLane="best" from="317183891#0" to="56007693#1"/>
    <trip id="veh38" type="veh_passenger" depart="95.51" departLane="best" from="111286353#2" to="-39117800#2"/>
    <trip id="veh39" type="veh_passenger" depart="98.03" departLane="best" from="998772221#2" to="147077493#2"/>
    <trip id="veh40" type="veh_passenger" depart="100.54" departLane="best" from="-20485036#3" to="-13904661"/>
    <trip id="veh41" type="veh_passenger" depart="103.05" departLane="best" from="-231751868#5" to="360313819"/>
    <trip id="veh42" type="veh_passenger" depart="105.57" departLane="best" from="4395775#1" to="12341248#0"/>
    <trip id="veh43" type="veh_passenger" depart="108.08" departLane="best" from="-14047194#0" to="-83806426#4"/>
    <trip id="veh44" type="veh_passenger" depart="110.59" departLane="best" from="998772221#0" to="20485040#12"/>
    <trip id="veh45" type="veh_passenger" depart="113.11" departLane="best" from="83806428#1" to="52288972#1"/>
    <trip id="veh46" type="veh_passenger" depart="115.62" departLane="best" from="-11685019#0" to="384401180"/>
    <trip id="veh47" type="veh_passenger" depart="118.13" departLane="best" from="3785445#3" to="22820607#0"/>
    <trip id="veh48" type="veh_passenger" depart="120.65" departLane="best" from="-4395933#5" to="3708838#2"/>
    <trip id="veh49" type="veh_passenger" depart="123.16" departLane="best" from="-233718299" to="128396776#2"/>
    <trip id="veh50" type="veh_passenger" depart="125.67" departLane="best" from="13904645#0" to="80479196"/>
    <trip id="veh51" type="veh_passenger" depart="128.19" departLane="best" from="52879958" to="-4395858#0"/>
    <trip id="veh52" type="veh_passenger" depart="130.70" departLane="best" from="140673637#2" to="-37692199#0"/>
    <trip id="veh53" type="veh_passenger" depart="133.21" departLane="best" from="59433203#5" to="52879958"/>
    <trip id="veh54" type="veh_passenger" depart="135.73" departLane="best" from="-48985674" to="3708681#3"/>
    <trip id="veh56" type="veh_passenger" depart="140.75" departLane="best" from="4215600" to="229119089"/>
    <trip id="veh57" type="veh_passenger" depart="143.27" departLane="best" from="432565295#3" to="20485040#4"/>
    <trip id="veh58" type="veh_passenger" depart="145.78" departLane="best" from="-1008992999" to="-548793704#0"/>
    <trip id="veh59" type="veh_passenger" depart="148.30" departLane="best" from="-128005879#2" to="67139158#0"/>
    <trip id="veh60" type="veh_passenger" depart="150.81" departLane="best" from="530721238#1" to="46895350#2"/>
    <trip id="veh61" type="veh_passenger" depart="153.32" departLane="best" from="-52321640#1" to="-13904706#2"/>
    <trip id="veh62" type="veh_passenger" depart="155.84" departLane="best" from="529166764#1" to="7990022#1"/>
    <trip id="veh63" type="veh_passenger" depart="158.35" departLane="best" from="-162745568#2" to="14044836#2"/>
    <trip id="veh64" type="veh_passenger" depart="160.86" departLane="best" from="-14047759#5" to="4215606#1"/>
    <trip id="veh65" type="veh_passenger" depart="163.38" departLane="best" from="4215666#0" to="-306917251#1"/>
    <trip id="veh66" type="veh_passenger" depart="165.89" departLane="best" from="13904691#1" to="233037569"/>
    <trip id="veh67" type="veh_passenger" depart="168.40" departLane="best" from="-4395890" to="528916932"/>
    <trip id="veh68" type="veh_passenger" depart="170.92" departLane="best" from="12341254#1" to="-3809981#2"/>
    <trip id="veh70" type="veh_passenger" depart="175.94" departLane="best" from="-37866821#2" to="-52321642#0"/>
    <trip id="veh71" type="veh_passenger" depart="178.46" departLane="best" from="998772220#0" to="374695664#1"/>
    <trip id="veh72" type="veh_passenger" depart="180.97" departLane="best" from="128676689#0" to="160963287#4"/>
    <trip id="veh73" type="veh_passenger" depart="183.48" departLane="best" from="-59433203#0" to="317149206"/>
    <trip id="veh74" type="veh_passenger" depart="186.00" departLane="best" from="-39944039#2" to="-39117802#1"/>
    <trip id="veh75" type="veh_passenger" depart="188.51" departLane="best" from="-14047779#1" to="360319695#0"/>
    <trip id="veh76" type="veh_passenger" depart="191.02" departLane="best" from="-39944037#1" to="585819383#0"/>
    <trip id="veh77" type="veh_passenger" depart="193.54" departLane="best" from="-41565491#0" to="37747135#1"/>
    <trip id="veh78" type="veh_passenger" depart="196.05" departLane="best" from="-3818568#0" to="-30988146#3"/>
    <trip id="veh79" type="veh_passenger" depart="198.56" departLane="best" from="673136293" to="296573594#1"/>
    <trip id="veh80" type="veh_passenger" depart="201.08" departLane="best" from="13904682#3" to="4395692#0"/>
    <trip id="veh81" type="veh_passenger" depart="203.59" departLane="best" from="4396159#1" to="-3785444#0"/>
    <trip id="veh82" type="veh_passenger" depart="206.11" departLane="best" from="-22566799#1" to="128396774#0"/>
    <trip id="veh83" type="veh_passenger" depart="208.62" departLane="best" from="125814598" to="13904655"/>
    <trip id="veh84" type="veh_passenger" depart="211.13" departLane="best" from="39179549#3" to="37747500#5"/>
    <trip id="veh85" type="veh_passenger" depart="213.65" departLane="best" from="913333123" to="-22566799#5"/>
    <trip id="veh87" type="veh_passenger" depart="218.67" departLane="best" from="50214631#2" to="-4215666#2"/>
    <trip id="veh88" type="veh_passenger" depart="221.19" departLane="best" from="-3785444#0" to="135582840#1"/>
    <trip id="veh89" type="veh_passenger" depart="223.70" departLane="best" from="12341247#4" to="-4540070#1"/>
    <trip id="veh90" type="veh_passenger" depart="226.21" departLane="best" from="-4215667" to="64270039#1"/>
    <trip id="veh91" type="veh_passenger" depart="228.73" departLane="best" from="130277328#1" to="52321639#0"/>
    <trip id="veh92" type="veh_passenger" depart="231.24" departLane="best" from="261557471#0" to="-13904675#5"/>
    <trip id="veh93" type="veh_passenger" depart="233.75" departLane="best" from="998776255" to="48482641#0"/>
    <trip id="veh94" type="veh_passenger" depart="236.27" departLane="best" from="83806426#2" to="64270137#3"/>
    <trip id="veh95" type="veh_passenger" depart="238.78" departLane="best" from="4937392#0" to="-3708865#2"/>
    <trip id="veh97" type="veh_passenger" depart="243.81" departLane="best" from="111286353#6" to="-13904706#4"/>
    <trip id="veh98" type="veh_passenger" depart="246.32" departLane="best" from="-81982573#2" to="915820852"/>
    <trip id="veh99" type="veh_passenger" depart="248.83" departLane="best" from="13904645#1" to="12341254#0"/>
   
    <trip id="veh201" type="veh_passenger" depart="505.21" departLane="best" from="37692492#0" to="-111286353#6"/>
    <trip id="veh202" type="veh_passenger" depart="507.72" departLane="best" from="41228866#3" to="4263428#1"/>
    <trip id="veh203" type="veh_passenger" depart="510.24" departLane="best" from="-231630879" to="125822009#3"/>
    <trip id="veh204" type="veh_passenger" depart="512.75" departLane="best" from="-376394520#0" to="81982573#0"/>
    <trip id="veh205" type="veh_passenger" depart="515.26" departLane="best" from="174092690" to="-13904675#4"/>
    <trip id="veh206" type="veh_passenger" depart="517.78" departLane="best" from="-4215666#3" to="497486086"/>
    <trip id="veh207" type="veh_passenger" depart="520.29" departLane="best" from="13904648#0" to="4396064"/>
    <trip id="veh208" type="veh_passenger" depart="522.80" departLane="best" from="32117788#8" to="80448023#1"/>
    <trip id="veh210" type="veh_passenger" depart="527.83" departLane="best" from="3810573#2" to="140673640"/>
    <trip id="veh211" type="veh_passenger" depart="530.34" departLane="best" from="4541289#7" to="231751868#5"/>
    <trip id="veh212" type="veh_passenger" depart="532.86" departLane="best" from="55814725#3" to="405364257#0"/>
    <trip id="veh213" type="veh_passenger" depart="535.37" departLane="best" from="13904690#1" to="-4395609#0"/>
    <trip id="veh214" type="veh_passenger" depart="537.88" departLane="best" from="4215666#0" to="174092690"/>
    <trip id="veh215" type="veh_passenger" depart="540.40" departLane="best" from="3708471#2" to="-4539928#2"/>
    <trip id="veh216" type="veh_passenger" depart="542.91" departLane="best" from="-14678786#1" to="-4540248#1"/>
    <trip id="veh217" type="veh_passenger" depart="545.42" departLane="best" from="-44069390#0" to="-543359813#4"/>
    <trip id="veh218" type="veh_passenger" depart="547.94" departLane="best" from="231630881#0" to="-317697974"/>
    <trip id="veh219" type="veh_passenger" depart="550.45" departLane="best" from="-40260270#3" to="37866821#1"/>
    <trip id="veh220" type="veh_passenger" depart="552.96" departLane="best" departSpeed="max" from="3789703#0" to="-14047194#2"/>
    <trip id="veh221" type="veh_passenger" depart="555.48" departLane="best" from="114208059#3" to="23076565#0"/>
    <trip id="veh222" type="veh_passenger" depart="557.99" departLane="best" from="11685178#0" to="-3792665"/>
    <trip id="veh223" type="veh_passenger" depart="560.51" departLane="best" from="12341238#0" to="585819382"/>
    <trip id="veh224" type="veh_passenger" depart="563.02" departLane="best" from="317183888" to="37866821#3"/>
    <trip id="veh225" type="veh_passenger" depart="565.53" departLane="best" from="49961185" to="42239606#1"/>
    <trip id="veh226" type="veh_passenger" depart="568.05" departLane="best" from="-83517075#1" to="-111286353#7"/>
    <trip id="veh227" type="veh_passenger" depart="570.56" departLane="best" from="-64270039#2" to="41592109"/>
    <trip id="veh228" type="veh_passenger" depart="573.07" departLane="best" from="497486086" to="80478293#1"/>
    <trip id="veh229" type="veh_passenger" depart="575.59" departLane="best" from="11685178#4" to="41228866#3"/>
    <trip id="veh230" type="veh_passenger" depart="578.10" departLane="best" from="-39179549#0" to="-39117801#0"/>
    <trip id="veh231" type="veh_passenger" depart="580.61" departLane="best" from="128396777#2" to="-128680991#4"/>
    <trip id="veh232" type="veh_passenger" depart="583.13" departLane="best" from="-56007677" to="37747645#2"/>
    <trip id="veh233" type="veh_passenger" depart="585.64" departLane="best" from="114207515" to="-3708681#5"/>
    <trip id="veh234" type="veh_passenger" depart="588.15" departLane="best" from="13904673#1" to="-306917249"/>
    <trip id="veh235" type="veh_passenger" depart="590.67" departLane="best" from="360319695#0" to="-128676689#2"/>
    <trip id="veh236" type="veh_passenger" depart="593.18" departLane="best" from="1008992999" to="290533427#1"/>
    <trip id="veh237" type="veh_passenger" depart="595.69" departLane="best" from="-128676689#2" to="3708838#4"/>
    <trip id="veh238" type="veh_passenger" depart="598.21" departLane="best" from="-317127403#1" to="13904649#0"/>
    <trip id="veh239" type="veh_passenger" depart="600.72" departLane="best" from="-13904675#4" to="-81982573#2"/>
    <trip id="veh240" type="veh_passenger" depart="603.23" departLane="best" from="-3809981#1" to="-556290242#1"/>
    <trip id="veh241" type="veh_passenger" depart="605.75" departLane="best" from="41592120#2" to="-81982573#2"/>
    <trip id="veh242" type="veh_passenger" depart="608.26" departLane="best" from="41565485#1" to="474506101#0"/>
    <trip id="veh243" type="veh_passenger" depart="610.77" departLane="best" from="-42293718#1" to="-160963287#2"/>
    <trip id="veh244" type="veh_passenger" depart="613.29" departLane="best" from="-128005879#2" to="229119089"/>
    <trip id="veh245" type="veh_passenger" depart="615.80" departLane="best" from="998776256" to="-64270035#0"/>
    <trip id="veh246" type="veh_passenger" depart="618.32" departLane="best" from="37692282#6" to="4395609#0"/>
    <trip id="veh247" type="veh_passenger" depart="620.83" departLane="best" from="37692391#0" to="41592113#0"/>
    <trip id="veh248" type="veh_passenger" depart="623.34" departLane="best" from="7990020#3" to="-37865180#2"/>
    <trip id="veh249" type="veh_passenger" depart="625.86" departLane="best" from="-128396774#1" to="-354359921"/>
    
    <trip id="veh351" type="veh_passenger" depart="882.23" departLane="best" from="-64226715#2" to="-55814729#3"/>
    <trip id="veh352" type="veh_passenger" depart="884.74" departLane="best" from="37747501" to="520012240"/>
    <trip id="veh353" type="veh_passenger" depart="887.26" departLane="best" from="-55668406" to="37866820"/>
    <trip id="veh354" type="veh_passenger" depart="889.77" departLane="best" from="-4541289#2" to="7990020#5"/>
    <trip id="veh355" type="veh_passenger" depart="892.28" departLane="best" from="4539929#2" to="233037569"/>
    <trip id="veh356" type="veh_passenger" depart="894.80" departLane="best" from="13904645#1" to="-52881850#0"/>
    <trip id="veh357" type="veh_passenger" depart="897.31" departLane="best" from="-547766101#3" to="83806428#0"/>
    <trip id="veh359" type="veh_passenger" depart="902.34" departLane="best" from="917565357" to="37692282#0"/>
    <trip id="veh360" type="veh_passenger" depart="904.85" departLane="best" from="231751868#5" to="114277935#2"/>
    <trip id="veh361" type="veh_passenger" depart="907.37" departLane="best" from="-37747500#7" to="-740743747"/>
    <trip id="veh362" type="veh_passenger" depart="909.88" departLane="best" from="41592105#5" to="360313819"/>
    <trip id="veh364" type="veh_passenger" depart="914.91" departLane="best" from="26143790#0" to="64344154"/>
    <trip id="veh366" type="veh_passenger" depart="919.93" departLane="best" from="-290533428" to="85418338"/>
    <trip id="veh368" type="veh_passenger" depart="924.96" departLane="best" from="-366887650#0" to="233718299"/>
    <trip id="veh369" type="veh_passenger" depart="927.47" departLane="best" from="261557486#4" to="-20485040#12"/>
    <trip id="veh370" type="veh_passenger" depart="929.99" departLane="best" from="939035838" to="632121623#0"/>
    <trip id="veh371" type="veh_passenger" depart="932.50" departLane="best" from="13904650#7" to="-2746171#5"/>
    <trip id="veh372" type="veh_passenger" depart="935.01" departLane="best" from="4541293#3" to="14047784#1"/>
    <trip id="veh373" type="veh_passenger" depart="937.53" departLane="best" from="3809978#2" to="147075696#0"/>
    <trip id="veh374" type="veh_passenger" depart="940.04" departLane="best" from="-4472602#0" to="4829715#0"/>
    <trip id="veh376" type="veh_passenger" depart="945.07" departLane="best" from="261557486#0" to="-85418329"/>
    <trip id="veh377" type="veh_passenger" depart="947.58" departLane="best" from="64226715#0" to="147075690"/>
    <trip id="veh378" type="veh_passenger" depart="950.09" departLane="best" from="541484858" to="52321641#0"/>
    <trip id="veh379" type="veh_passenger" depart="952.61" departLane="best" from="-4540064#1" to="4395775#4"/>
    <trip id="veh381" type="veh_passenger" depart="957.63" departLane="best" from="150800557#0" to="4540248#1"/>
    <trip id="veh382" type="veh_passenger" depart="960.15" departLane="best" from="-4540080#3" to="-48985674"/>
    <trip id="veh383" type="veh_passenger" depart="962.66" departLane="best" from="317697975#4" to="998772222#2"/>
    <trip id="veh384" type="veh_passenger" depart="965.18" departLane="best" from="14047759#0" to="-326772508#2"/>
    <trip id="veh385" type="veh_passenger" depart="967.69" departLane="best" from="23102758#0" to="-636824321#1"/>
    <trip id="veh386" type="veh_passenger" depart="970.20" departLane="best" from="261557486#3" to="23076566"/>
    <trip id="veh387" type="veh_passenger" depart="972.72" departLane="best" from="13904645#2" to="-547766100#1"/>
    <trip id="veh389" type="veh_passenger" depart="977.74" departLane="best" from="43175824#1" to="-13904650#6"/>
    <trip id="veh390" type="veh_passenger" depart="980.26" departLane="best" from="40260270#1" to="3789571#2"/>
    <trip id="veh391" type="veh_passenger" depart="982.77" departLane="best" from="4472602#0" to="-85422718#2"/>
    <trip id="veh392" type="veh_passenger" depart="985.28" departLane="best" from="909735863" to="14047760#1"/>
    <trip id="veh393" type="veh_passenger" depart="987.80" departLane="best" from="-137329785#0" to="14047962#2"/>
    <trip id="veh394" type="veh_passenger" depart="990.31" departLane="best" from="32117786#4" to="52822147#0"/>
    <trip id="veh395" type="veh_passenger" depart="992.82" departLane="best" from="52324405" to="128680991#0"/>
    <trip id="veh396" type="veh_passenger" depart="995.34" departLane="best" from="20485040#13" to="13871260"/>
    <trip id="veh397" type="veh_passenger" depart="997.85" departLane="best" from="384401180" to="114208222#2"/>
    <trip id="veh398" type="veh_passenger" depart="1000.36" departLane="best" departSpeed="max" from="37692415#0" to="-354369976#3"/>
    <trip id="veh399" type="veh_passenger" depart="1002.88" departLane="best" from="13904675#4" to="83806426#4"/>
    <trip id="veh400" type="veh_passenger" depart="1005.39" departLane="best" from="-59433203#2" to="37865180#0"/>
    <trip id="veh401" type="veh_passenger" depart="1007.90" departLane="best" from="37692282#5" to="49961185"/>
    <trip id="veh402" type="veh_passenger" depart="1010.42" departLane="best" from="497328791" to="520012241#1"/>
    <trip id="veh403" type="veh_passenger" depart="1012.93" departLane="best" from="-83517075#0" to="-530721238#1"/>
    <trip id="veh404" type="veh_passenger" depart="1015.44" departLane="best" from="3810573#1" to="4215601#1"/>
    <trip id="veh405" type="veh_passenger" depart="1017.96" departLane="best" from="52321642#0" to="-135582944"/>
    <trip id="veh406" type="veh_passenger" depart="1020.47" departLane="best" from="-14047759#3" to="360319695#0"/>
    <trip id="veh407" type="veh_passenger" depart="1022.99" departLane="best" from="64055562" to="998772221#2"/>
    <trip id="veh408" type="veh_passenger" depart="1025.50" departLane="best" from="40260272#2" to="128396775"/>
    <trip id="veh409" type="veh_passenger" depart="1028.01" departLane="best" from="-22566799#5" to="3708463#1"/>
    <trip id="veh410" type="veh_passenger" depart="1030.53" departLane="best" from="52321642#1" to="130294072#1"/>
    <trip id="veh411" type="veh_passenger" depart="1033.04" departLane="best" from="3788405#1" to="585819381#0"/>
    <trip id="veh412" type="veh_passenger" depart="1035.55" departLane="best" from="-13904657" to="4395933#7"/>
    <trip id="veh413" type="veh_passenger" depart="1038.07" departLane="best" from="-4541293#6" to="-80479198#0"/>
    <trip id="veh414" type="veh_passenger" depart="1040.58" departLane="best" from="-32117788#6" to="20485040#6"/>
    <trip id="veh415" type="veh_passenger" depart="1043.09" departLane="best" from="296573594#1" to="4395890"/>
    <trip id="veh416" type="veh_passenger" depart="1045.61" departLane="best" from="-372245390#1" to="-150800557#0"/>
    <trip id="veh417" type="veh_passenger" depart="1048.12" departLane="best" from="-32117788#0" to="13904648#4"/>
    <trip id="veh418" type="veh_passenger" depart="1050.63" departLane="best" from="-42293718#6" to="-4263428#3"/>
    <trip id="veh419" type="veh_passenger" depart="1053.15" departLane="best" from="-114208262#2" to="4396161#0"/>
    <trip id="veh420" type="veh_passenger" depart="1055.66" departLane="best" from="-365839070" to="128912367"/>
    <trip id="veh421" type="veh_passenger" depart="1058.17" departLane="best" from="372256216#0" to="125814738#2"/>
    <trip id="veh422" type="veh_passenger" depart="1060.69" departLane="best" from="-42239605#1" to="4937393"/>
    <trip id="veh423" type="veh_passenger" depart="1063.20" departLane="best" from="-37865180#2" to="-85422715#0"/>
    <trip id="veh424" type="veh_passenger" depart="1065.71" departLane="best" from="14045599#1" to="-41362435"/>
    <trip id="veh425" type="veh_passenger" depart="1068.23" departLane="best" from="306917253#0" to="30454634#3"/>
    <trip id="veh426" type="veh_passenger" depart="1070.74" departLane="best" from="962863830#1" to="-4674997"/>
    <trip id="veh427" type="veh_passenger" depart="1073.25" departLane="best" from="874916508#0" to="37692282#4"/>
    <trip id="veh428" type="veh_passenger" depart="1075.77" departLane="best" from="-4539928#2" to="293281653#0"/>
    <trip id="veh429" type="veh_passenger" depart="1078.28" departLane="best" from="37865178" to="405364257#3"/>
    <trip id="veh430" type="veh_passenger" depart="1080.80" departLane="best" from="-13904675#0" to="338075835#3"/>
    <trip id="veh431" type="veh_passenger" depart="1083.31" departLane="best" from="14047802#1" to="585819381#1"/>
    <trip id="veh432" type="veh_passenger" depart="1085.82" departLane="best" from="-4540261#1" to="4395982#1"/>
    <trip id="veh433" type="veh_passenger" depart="1088.34" departLane="best" from="348538605#0" to="-64270039#3"/>
    <trip id="veh434" type="veh_passenger" depart="1090.85" departLane="best" from="3708865#7" to="354359921"/>
    <trip id="veh435" type="veh_passenger" depart="1093.36" departLane="best" from="37747728#1" to="384401180"/>
    <trip id="veh436" type="veh_passenger" depart="1095.88" departLane="best" from="37747008#0" to="4908199#0"/>
    <trip id="veh437" type="veh_passenger" depart="1098.39" departLane="best" from="3708541#3" to="585819381#0"/>
    <trip id="veh438" type="veh_passenger" depart="1100.90" departLane="best" from="37692198#3" to="-52321641#2"/>
    <trip id="veh439" type="veh_passenger" depart="1103.42" departLane="best" from="128680991#4" to="30988144#0"/>
    <trip id="veh440" type="veh_passenger" depart="1105.93" departLane="best" from="39255348#1" to="-20484465#2"/>
    <trip id="veh441" type="veh_passenger" depart="1108.44" departLane="best" from="-4674997" to="41228866#3"/>
    <trip id="veh442" type="veh_passenger" depart="1110.96" departLane="best" from="-376394518#1" to="-30988146#3"/>
    <trip id="veh443" type="veh_passenger" depart="1113.47" departLane="best" from="23102758#3" to="8403822#1"/>
    <trip id="veh444" type="veh_passenger" depart="1115.98" departLane="best" from="22566799#5" to="632121623#1"/>
    <trip id="veh445" type="veh_passenger" depart="1118.50" departLane="best" from="4541289#7" to="-43100899#2"/>
    <trip id="veh446" type="veh_passenger" depart="1121.01" departLane="best" from="4540245#3" to="13904706#4"/>
    <trip id="veh447" type="veh_passenger" depart="1123.52" departLane="best" from="-59433203#2" to="-26143790#1"/>
    <trip id="veh448" type="veh_passenger" depart="1126.04" departLane="best" from="8111230#3" to="-32117786#2"/>
    <trip id="veh449" type="veh_passenger" depart="1128.55" departLane="best" from="83806415" to="520012242"/>
    
    <trip id="veh551" type="veh_passenger" depart="1384.93" departLane="best" from="37747500#3" to="-13904654#0"/>
    <trip id="veh552" type="veh_passenger" depart="1387.44" departLane="best" from="1049078008" to="32117788#4"/>
    <trip id="veh553" type="veh_passenger" depart="1389.95" departLane="best" from="-114208222#1" to="-4937392#2"/>
    <trip id="veh554" type="veh_passenger" depart="1392.47" departLane="best" from="-3809981#0" to="-317183888"/>
    <trip id="veh555" type="veh_passenger" depart="1394.98" departLane="best" from="-4263428#3" to="-55668397"/>
    <trip id="veh556" type="veh_passenger" depart="1397.49" departLane="best" from="-114208222#1" to="41228866#2"/>
    <trip id="veh557" type="veh_passenger" depart="1400.01" departLane="best" from="-376394518#1" to="-83517075#0"/>
    <trip id="veh558" type="veh_passenger" depart="1402.52" departLane="best" departSpeed="max" from="3789703#0" to="14047802#1"/>
    <trip id="veh559" type="veh_passenger" depart="1405.03" departLane="best" from="4541293#5" to="44069390#1"/>
    <trip id="veh560" type="veh_passenger" depart="1407.55" departLane="best" from="-14047825#2" to="52321639#1"/>
    <trip id="veh561" type="veh_passenger" depart="1410.06" departLane="best" from="-13904650#1" to="-128005879#0"/>
    <trip id="veh562" type="veh_passenger" depart="1412.57" departLane="best" from="64055563#1" to="52321639#2"/>
    <trip id="veh563" type="veh_passenger" depart="1415.09" departLane="best" from="30988145#0" to="30454634#1"/>
    <trip id="veh564" type="veh_passenger" depart="1417.60" departLane="best" departSpeed="max" from="3789703#0" to="11685178#2"/>